SOLUTION_MASTER_SPECIES
#
#element species        alk     gfw_formula     element_gfw
#
H        H+             -1.     H               1.008
H(1)     H+             -1.     0.0
E        e-             0.0     0.0             0.0
O        H2O            0.0     O               16.00
O(0)     O2             0.0     O
O(-2)    H2O            0.0     0.0
Na       Na+            0.0     Na              22.9898
Cl       Cl-            0.0     Cl              35.453

N        NO3-           0.0     N               14.0067
N(5)     NO3-           0.0     N
S        SO4-2          0.0     SO4             32.064
S(6)     SO4-2          0.0     SO4
Fe       Fe+2           0.0     Fe              55.847
Fe(+2)   Fe+2           0.0     Fe
Hy_carb  Hy_carb        0.0     Hy_carb         92.    
Meth     Meth           0.0     Meth            16.    

SOLUTION_SPECIES

H+ = H+
        log_k           0.000
        -gamma          9.0000    0.0000
e- = e-
        log_k           0.000
H2O = H2O
        log_k           0.000
Na+ = Na+
        log_k           0.000
Cl- = Cl-
        log_k           0.000

Fe+2 = Fe+2
        log_k           0.000
        -gamma    6.0000    0.0000

SO4-2 = SO4-2
        log_k           0.000
        -gamma    5.0000   -0.0400

NO3- = NO3-
        log_k           0.000
        -gamma    3.0000    0.0000

Hy_carb   = Hy_carb
        log_k           0.0

Meth      = Meth   
        log_k           0.0

H2O = OH- + H+
        log_k           -14.000
        delta_h 13.362  kcal
        -analytic       -283.971       -0.05069842  13323.0    102.24447      -1119669.0
        -gamma    3.5000    0.0000

2 H2O = O2 + 4 H+ + 4 e-
        log_k           -86.08
        delta_h 134.79 kcal

2 H+ + 2 e- = H2
        log_k           -3.15
        delta_h -1.759 kcal

Na+ + H2O = NaOH + H+
        log_k           -14.180



RATES

##########
#Oxygen
#Y_O2/HC = (9 * 32) / 92 = 3.14 (mg/mg) (using mol. weight of toluene)
#C7H8 + 9O2 + 3H2O = 7HCO3- + 7H+  -> Y_O2/HC = 9 (mol/mol)
##########
O(0)
-start
10  mHy_carb = tot("Hy_carb")
20  mO2 =      mol("O2")
30  if (mHy_carb <= 1e-08) then goto 200
40  if (mO2      <= 1e-08) then goto 200
90  monod_ox     = mO2 / (0.5/1000/32 + mO2)
120 rate         = parm(1) * 86400 * mHy_carb * monod_ox
130 rate         = rate * 9.0
#180 moles = rate * m * (m/m0) * time
180 moles = rate * time
#190 if (moles > m) then moles = m
200 SAVE moles
-end

##########
#Nitrate
#Y_NO3/HC = (7.2 * 62) / 92 = 4.90 (mg/mg) (using mol. weight of toluene)
#C7H8 + 7.2 NO3- + 0.2H+ = 7HCO3- + 3.6 N2 + 0.6H2O  -> Y_NO3/HC = 7.2 (mol/mol)
##########
N(5)
-start
10  mHy_carb = tot("Hy_carb")
20  mO2      = mol("O2")
30  mNO3     = tot("N(5)")
40  if (mHy_carb <= 1e-08) then goto 200
50  if (mNO3     <= 1e-08) then goto 200
90  inhib_ox     = 0.001/1000/32 / (0.001/1000/32 + mO2)
100 monod_no3    = mNO3 / (0.5/1000/62 + mNO3)
120 rate         = parm(1) / 86400 * mHy_carb * inhib_ox
130 rate         = rate * monod_no3
140 rate         = rate * 7.2
#180 moles = rate * m * (m/m0) * time
180 moles = rate * time
#190 if (moles > m) then moles = m
200 SAVE moles
-end

##########
#Fe(2)
#Y_Fe/HC = (36*55.847) / 92 = 21.80 (mg/mg) (using mol. weight of toluene)
#C7H8 + 36Fe+3 + 21H2O = 7HCO3- + 36Fe+2 + 43H+  -> Y_Fe/HC = 36 (mol/mol)
##########
#
Fe(2)
-start
 5  mFE3_max = 25/55.847/1000
10  mHy_carb = tot("Hy_carb")
20  mO2      = mol("O2")
30  mNO3     = tot("N(5)")
40  mSO4     = tot("S(6)")
50  mFE2     = tot("Fe(2)")
65  mFE3     = mFE3_max - mFE2
60  if (mHy_carb <= 1e-08) then goto 200
70  if (mFE3     <= 1e-08) then goto 200
90  inhib_ox     = 0.001/1000/32 / (0.001/1000/32 + mO2)
100 inhib_no3    = 0.001/1000/62 / (0.001/1000/62 + mNO3)
110 monod_fe3    = mFE3 / (0.5/1000/55.847 + mFE3)
120 rate         = parm(1) / 86400 * mHy_carb * inhib_ox
130 rate         = rate * inhib_no3 * monod_fe3
140 rate         = rate * 36.0
#180 moles = rate * m * (m/m0) * time
180 moles = rate * time
#190 if (moles > m) then moles = m
200 SAVE moles
-end

##########
#Sulfate
#Y_SO4/HC = (4.5 * 96) / 92 (mg/mg) (using mol. weight of toluene)
#C7H8 + 4.5SO4-2 + 3H2O + 2H+ = 7HCO3- +4.5HS- -> Y_SO4/HC = 4.5 (mol/mol)
##########
S(6)
-start
 5  mFE3_max = 25/55.847/1000
10  mHy_carb = tot("Hy_carb")
20  mO2      = mol("O2")
30  mNO3 = tot("N(5)")
35  mFE2 = tot("Fe(2)")
40  mSO4 = tot("S(6)")
45  mFE3 = mFE3_max - mFE2
50  if (mHy_carb <= 1e-08) then goto 200
60  if (mSO4     <= 1e-08) then goto 200
90  inhib_ox     = 0.001/1000/32     / (0.001/1000/32 + mO2)
100 inhib_no3    = 0.001/1000/62     / (0.001/1000/62 + mNO3)
120 inhib_fe3    = 0.001/1000/55.847 / (0.001/1000/55.847 + mFE3)
110 monod_so4    = mSO4            / (0.5/1000/96 + mSO4)
120 rate         = parm(1) / 86400 * mHy_carb * inhib_ox
130 rate         = rate * inhib_no3 * inhib_fe3
140 rate         = rate * monod_so4
150 rate         = rate * 4.5
#180 moles = rate * m * (m/m0) * time
180 moles = rate * time
#190 if (moles > m) then moles = m
200 SAVE moles
-end

##########
#Methane
#Y_Meth/HC (4.5 * 16) / 92 = 0.78 (mg/mg) (using mol. weight of toluene)
#C7H8 + 7.5 H2O = 2.5 HCO3- + 2.5 H+ 4.5CH4 -> Y_Meth/HC = - 4.5  (mol/mol)
##########
Meth
-start
 5  mMeth_max = 30/16/1000
 8  mFE3_max  = 25/55.847/1000
10  mHy_carb  = tot("Hy_carb")
20  mO2       = mol("O2")
30  mNO3      = tot("N(5)")
40  mSO4      = tot("S(6)")
50  mFE2      = tot("Fe(2)")
60  mMETH     = tot("Meth")
65  mCO2      = mMeth_max - mMETH
65  mFE3      = mFE3_max  - mFE2
70  if (mHy_carb <= 1e-08) then goto 200
80  if (mMETH    <= 1e-08) then goto 200
90  inhib_ox   = 0.001/1000/32    / (0.001/1000/32 + mO2)
100 inhib_no3  = 0.001/1000/62    / (0.001/1000/62 + mNO3)
110 inhib_fe3  = 0.001/1000/55.847/ (0.001/1000/55.847 + mFE3)
120 inhib_so4  = 0.001/1000/96    / (0.001/1000/96 + mSO4)
130 monod_co2  = mCO2           / (0.5/1000/16 + mCO2)
120 rate       = parm(1) / 86400 * mHy_carb * inhib_ox
150 rate       = rate * inhib_no3 * inhib_fe3
160 rate       = rate * inhib_so4 * monod_co2
170 rate       = rate * 4.5
#180 moles = rate * m * (m/m0) * time
180 moles = rate * time
#190 if (moles > m) then moles = m
200 SAVE moles
-end

END
